59472121
  -OEChem-06182408303D

 58 61  0     0  0  0  0  0  0999 V2000
    7.0850   -1.6296   -0.5468 S   0  0  0  0  0  0  0  0  0  0  0  0
    6.6953   -3.0244   -0.6277 O   0  0  0  0  0  0  0  0  0  0  0  0
    7.8901   -1.0267   -1.5914 O   0  0  0  0  0  0  0  0  0  0  0  0
   -1.3402   -0.1031   -0.9427 O   0  0  0  0  0  0  0  0  0  0  0  0
    0.9361    1.0063   -0.1341 N   0  0  0  0  0  0  0  0  0  0  0  0
    1.0236    3.7734    0.3156 N   0  0  0  0  0  0  0  0  0  0  0  0
   -2.5824   -0.7253   -0.9704 N   0  0  0  0  0  0  0  0  0  0  0  0
   -9.5361   -1.6922   -0.5753 N   0  0  0  0  0  0  0  0  0  0  0  0
   -1.3489    3.8314    0.3181 N   0  0  0  0  0  0  0  0  0  0  0  0
    7.9120   -1.3969    1.0044 C   0  0  0  0  0  0  0  0  0  0  0  0
    5.6188   -0.6572   -0.3923 C   0  0  0  0  0  0  0  0  0  0  0  0
    7.0141   -1.8365    2.1514 C   0  0  0  0  0  0  0  0  0  0  0  0
    9.2348   -2.1485    1.0144 C   0  0  0  0  0  0  0  0  0  0  0  0
    5.6244    0.6810   -0.7863 C   0  0  0  0  0  0  0  0  0  0  0  0
    4.4551   -1.2275    0.1237 C   0  0  0  0  0  0  0  0  0  0  0  0
    3.3026    0.8784   -0.1481 C   0  0  0  0  0  0  0  0  0  0  0  0
    4.4664    1.4487   -0.6641 C   0  0  0  0  0  0  0  0  0  0  0  0
    3.2971   -0.4596    0.2459 C   0  0  0  0  0  0  0  0  0  0  0  0
    2.1012    1.6746   -0.0222 C   0  0  0  0  0  0  0  0  0  0  0  0
   -0.1845    1.7461   -0.0172 C   0  0  0  0  0  0  0  0  0  0  0  0
   -4.7394   -0.3275    0.0326 C   0  0  0  0  0  0  0  0  0  0  0  0
   -1.4052    0.9921   -0.1432 C   0  0  0  0  0  0  0  0  0  0  0  0
   -3.3603    0.0209   -0.1810 C   0  0  0  0  0  0  0  0  0  0  0  0
   -7.4140   -1.0025    0.4494 C   0  0  0  0  0  0  0  0  0  0  0  0
    2.1442    3.0337    0.1987 C   0  0  0  0  0  0  0  0  0  0  0  0
   -2.6704    1.1161    0.3668 C   0  0  0  0  0  0  0  0  0  0  0  0
   -8.8438   -1.3629    0.6717 C   0  0  0  0  0  0  0  0  0  0  0  0
   -5.6791    0.6711    0.2885 C   0  0  0  0  0  0  0  0  0  0  0  0
   -5.1372   -1.6637   -0.0152 C   0  0  0  0  0  0  0  0  0  0  0  0
   -0.1416    3.1051    0.2036 C   0  0  0  0  0  0  0  0  0  0  0  0
   -7.0163    0.3337    0.4969 C   0  0  0  0  0  0  0  0  0  0  0  0
   -6.4745   -2.0011    0.1933 C   0  0  0  0  0  0  0  0  0  0  0  0
  -10.9273   -2.0275   -0.3172 C   0  0  0  0  0  0  0  0  0  0  0  0
    8.1207   -0.3245    1.0945 H   0  0  0  0  0  0  0  0  0  0  0  0
    7.5635   -1.7988    3.0991 H   0  0  0  0  0  0  0  0  0  0  0  0
    6.1511   -1.1766    2.2717 H   0  0  0  0  0  0  0  0  0  0  0  0
    6.6496   -2.8610    2.0242 H   0  0  0  0  0  0  0  0  0  0  0  0
    9.7728   -1.9771    1.9527 H   0  0  0  0  0  0  0  0  0  0  0  0
    9.8819   -1.8196    0.1944 H   0  0  0  0  0  0  0  0  0  0  0  0
    9.0838   -3.2278    0.9036 H   0  0  0  0  0  0  0  0  0  0  0  0
    6.5203    1.1453   -1.1885 H   0  0  0  0  0  0  0  0  0  0  0  0
    4.4287   -2.2665    0.4396 H   0  0  0  0  0  0  0  0  0  0  0  0
    4.5071    2.4805   -1.0025 H   0  0  0  0  0  0  0  0  0  0  0  0
    2.4095   -0.9306    0.6613 H   0  0  0  0  0  0  0  0  0  0  0  0
    3.0620    3.5976    0.3162 H   0  0  0  0  0  0  0  0  0  0  0  0
   -3.0368    1.8675    1.0515 H   0  0  0  0  0  0  0  0  0  0  0  0
   -8.8887   -2.2108    1.3683 H   0  0  0  0  0  0  0  0  0  0  0  0
   -9.3579   -0.5314    1.1713 H   0  0  0  0  0  0  0  0  0  0  0  0
   -5.4019    1.7218    0.3215 H   0  0  0  0  0  0  0  0  0  0  0  0
   -4.4268   -2.4650   -0.2039 H   0  0  0  0  0  0  0  0  0  0  0  0
   -7.7378    1.1230    0.6910 H   0  0  0  0  0  0  0  0  0  0  0  0
   -6.7715   -3.0460    0.1566 H   0  0  0  0  0  0  0  0  0  0  0  0
   -9.0804   -2.4907   -1.0172 H   0  0  0  0  0  0  0  0  0  0  0  0
   -2.1182    3.5741   -0.2880 H   0  0  0  0  0  0  0  0  0  0  0  0
   -1.2486    4.8207    0.5147 H   0  0  0  0  0  0  0  0  0  0  0  0
  -11.4632   -1.1844    0.1308 H   0  0  0  0  0  0  0  0  0  0  0  0
  -11.0171   -2.8988    0.3398 H   0  0  0  0  0  0  0  0  0  0  0  0
  -11.4256   -2.2673   -1.2617 H   0  0  0  0  0  0  0  0  0  0  0  0
  1  2  2  0  0  0  0
  1  3  2  0  0  0  0
  1 10  1  0  0  0  0
  1 11  1  0  0  0  0
  4  7  1  0  0  0  0
  4 22  1  0  0  0  0
  5 19  1  0  0  0  0
  5 20  2  0  0  0  0
  6 25  1  0  0  0  0
  6 30  2  0  0  0  0
  7 23  2  0  0  0  0
  8 27  1  0  0  0  0
  8 33  1  0  0  0  0
  8 53  1  0  0  0  0
  9 30  1  0  0  0  0
  9 54  1  0  0  0  0
  9 55  1  0  0  0  0
 10 12  1  0  0  0  0
 10 13  1  0  0  0  0
 10 34  1  0  0  0  0
 11 14  2  0  0  0  0
 11 15  1  0  0  0  0
 12 35  1  0  0  0  0
 12 36  1  0  0  0  0
 12 37  1  0  0  0  0
 13 38  1  0  0  0  0
 13 39  1  0  0  0  0
 13 40  1  0  0  0  0
 14 17  1  0  0  0  0
 14 41  1  0  0  0  0
 15 18  2  0  0  0  0
 15 42  1  0  0  0  0
 16 17  2  0  0  0  0
 16 18  1  0  0  0  0
 16 19  1  0  0  0  0
 17 43  1  0  0  0  0
 18 44  1  0  0  0  0
 19 25  2  0  0  0  0
 20 22  1  0  0  0  0
 20 30  1  0  0  0  0
 21 23  1  0  0  0  0
 21 28  2  0  0  0  0
 21 29  1  0  0  0  0
 22 26  2  0  0  0  0
 23 26  1  0  0  0  0
 24 27  1  0  0  0  0
 24 31  2  0  0  0  0
 24 32  1  0  0  0  0
 25 45  1  0  0  0  0
 26 46  1  0  0  0  0
 27 47  1  0  0  0  0
 27 48  1  0  0  0  0
 28 31  1  0  0  0  0
 28 49  1  0  0  0  0
 29 32  2  0  0  0  0
 29 50  1  0  0  0  0
 31 51  1  0  0  0  0
 32 52  1  0  0  0  0
 33 56  1  0  0  0  0
 33 57  1  0  0  0  0
 33 58  1  0  0  0  0
M  END
> <PUBCHEM_COMPOUND_CID>
59472121

> <PUBCHEM_CONFORMER_RMSD>
1

> <PUBCHEM_CONFORMER_DIVERSEORDER>
11
1
13
5
2
12
22
17
6
20
21
4
19
7
10
14
18
3
9
8
15
16

> <PUBCHEM_MMFF94_PARTIAL_CHARGES>
43
1 1.2
10 0.11
11 -0.01
14 -0.15
15 -0.15
17 -0.15
18 -0.15
19 0.31
2 -0.65
20 0.36
21 0.05
22 0.09
23 0.23
24 -0.14
25 0.16
26 -0.15
27 0.41
28 -0.15
29 -0.15
3 -0.65
30 0.41
31 -0.15
32 -0.15
33 0.27
4 -0.02
41 0.15
42 0.15
43 0.15
44 0.15
45 0.15
46 0.15
49 0.15
5 -0.62
50 0.15
51 0.15
52 0.15
53 0.36
54 0.4
55 0.4
6 -0.62
7 -0.41
8 -0.9
9 -0.9

> <PUBCHEM_EFFECTIVE_ROTOR_COUNT>
7

> <PUBCHEM_PHARMACOPHORE_FEATURES>
13
1 2 acceptor
1 3 acceptor
1 5 acceptor
1 7 acceptor
1 8 cation
1 8 donor
1 9 donor
3 10 12 13 hydrophobe
3 6 9 30 cation
5 4 7 22 23 26 rings
6 11 14 15 16 17 18 rings
6 21 24 28 29 31 32 rings
6 5 6 19 20 25 30 rings

> <PUBCHEM_HEAVY_ATOM_COUNT>
33

> <PUBCHEM_ATOM_DEF_STEREO_COUNT>
0

> <PUBCHEM_ATOM_UDEF_STEREO_COUNT>
0

> <PUBCHEM_BOND_DEF_STEREO_COUNT>
0

> <PUBCHEM_BOND_UDEF_STEREO_COUNT>
0

> <PUBCHEM_ISOTOPIC_ATOM_COUNT>
0

> <PUBCHEM_COMPONENT_COUNT>
1

> <PUBCHEM_CACTVS_TAUTO_COUNT>
4

> <PUBCHEM_CONFORMER_ID>
038B78F90000000B

> <PUBCHEM_MMFF94_ENERGY>
84.1099

> <PUBCHEM_FEATURE_SELFOVERLAP>
65.989

> <PUBCHEM_SHAPE_FINGERPRINT>
10 15 11672060848065095005
10299344 5 18334018289065514135
10411042 1 18411420592252926568
10533779 47 16056893411373695615
10625338 86 14549020952927576291
11297750 10 18410001144000455148
11409948 41 15502926413197946674
11456790 92 17703245005153318595
11672396 167 18341608279138714927
117089 54 18055364531171869126
12013929 2 18261110799960331011
12166972 35 17894353276602002164
12522641 24 17560800000651707528
12539745 222 17774727454665388544
12539765 74 11386358232124598929
12592606 108 18412828001991369447
12758862 56 18410852170763592433
13248334 5 18123753324768518256
13673619 4 18113898260287421997
13692115 27 18409444769578400825
13782708 43 18040431122343801517
13947934 56 18408318870251507981
14026016 60 16081637886771946218
14068700 675 18334016060600557956
14202775 3 18262804107818248779
14216079 64 18411702092766682951
14347424 109 18060139898526959481
14359421 15 17822005376544357402
14428016 204 12175617399973726010
15064981 194 8717960119715505327
15198563 99 16370996392034214757
16992752 21 18340780260666817916
1754911 235 11891334257702420635
18393751 57 12175625061969132289
19301679 30 18200601293572802148
19841028 212 18335701676133455946
20028762 73 18411139092191999986
2026 5 18336262349428078235
20554085 129 11963673382820770372
21130935 74 18126288782397988251
21267235 1 18412831282602767004
21792934 111 18201149988293079769
21792938 131 18114451297593377387
21895431 317 18413386523845013135
21987483 16 18187636983211100546
23522609 53 18122098430972314117
23524908 199 12685084857869047746
23559900 14 18265613372225614433
23576562 1 12685678679483519683
25242607 90 18272081712446335226
3004659 81 18113900464027481612
306946 40 13470418713410487315
3383291 50 18412262830796772283
4073 2 17972602366671003417
4107672 100 17531241700401852677
437795 160 15769772503538649591
439807 62 18186521016308150038
4461854 278 17917710202248712670
465052 167 18272376390416349052
474113 269 18413108364555583263
5219985 9 18334577927905488644
54039377 194 18335984190851292262
5470011 282 17240773908176122590
5718773 13 18410012122273233152
6081469 158 17676203576465110975
6327066 14 9007051366570263688
6691757 9 15841540878478238485
9962374 69 18272364325963841367

> <PUBCHEM_SHAPE_MULTIPOLES>
640.46
32.42
3.57
1.03
31.33
2.79
-0.17
-37.02
-2.07
-2.09
-0.5
-1.88
-0.47
-1.37

> <PUBCHEM_SHAPE_SELFOVERLAP>
1383.053

> <PUBCHEM_SHAPE_VOLUME>
354.5

> <PUBCHEM_COORDINATE_TYPE>
2
5
10

$$$$
