54761306
  -OEChem-06182408333D

 53 57  0     1  0  0  0  0  0999 V2000
   -2.3018   -3.3701   -1.0870 S   0  0  1  0  0  0  0  0  0  0  0  0
   -2.8267   -4.7143   -0.8427 O   0  0  0  0  0  0  0  0  0  0  0  0
   -3.0580    4.6397    0.1872 O   0  0  0  0  0  0  0  0  0  0  0  0
   -3.0629   -2.2486   -1.8485 N   0  0  0  0  0  0  0  0  0  0  0  0
    0.2662   -1.4377    0.5820 N   0  0  0  0  0  0  0  0  0  0  0  0
   -1.7417    2.1642    0.3938 N   0  0  0  0  0  0  0  0  0  0  0  0
    0.2973    0.9713    0.5195 N   0  0  0  0  0  0  0  0  0  0  0  0
    5.0045    0.8737   -1.3716 N   0  0  0  0  0  0  0  0  0  0  0  0
    5.1750   -0.2699    0.7417 N   0  0  0  0  0  0  0  0  0  0  0  0
   -1.8155   -2.6828    0.5181 C   0  0  0  0  0  0  0  0  0  0  0  0
   -2.8110   -3.0299    1.5859 C   0  0  0  0  0  0  0  0  0  0  0  0
   -1.5071   -3.7685    1.5070 C   0  0  0  0  0  0  0  0  0  0  0  0
   -1.0805   -1.3849    0.5180 C   0  0  0  0  0  0  0  0  0  0  0  0
   -0.7517   -3.5910   -1.9422 C   0  0  0  0  0  0  0  0  0  0  0  0
   -1.7994   -0.2089    0.4536 C   0  0  0  0  0  0  0  0  0  0  0  0
   -1.0503    0.9501    0.4577 C   0  0  0  0  0  0  0  0  0  0  0  0
    0.8825   -0.2402    0.5786 C   0  0  0  0  0  0  0  0  0  0  0  0
   -2.7152    2.3893   -0.6937 C   0  0  1  0  0  0  0  0  0  0  0  0
   -1.1735    3.3610    1.0267 C   0  0  0  0  0  0  0  0  0  0  0  0
   -3.7237    3.4583   -0.2583 C   0  0  0  0  0  0  0  0  0  0  0  0
    2.3204   -0.2568    0.6458 C   0  0  0  0  0  0  0  0  0  0  0  0
   -2.2768    4.3622    1.3472 C   0  0  0  0  0  0  0  0  0  0  0  0
   -1.9877    2.8037   -1.9774 C   0  0  0  0  0  0  0  0  0  0  0  0
    3.0788    0.3145   -0.3887 C   0  0  0  0  0  0  0  0  0  0  0  0
    3.0060   -0.8280    1.7164 C   0  0  0  0  0  0  0  0  0  0  0  0
    4.4646    0.2679   -0.2679 C   0  0  0  0  0  0  0  0  0  0  0  0
    2.7950    0.9743   -1.6136 C   0  0  0  0  0  0  0  0  0  0  0  0
    4.3943   -0.8051    1.7089 C   0  0  0  0  0  0  0  0  0  0  0  0
    3.9989    1.3067   -2.1965 C   0  0  0  0  0  0  0  0  0  0  0  0
   -3.7174   -3.5663    1.3334 H   0  0  0  0  0  0  0  0  0  0  0  0
   -2.9425   -2.3478    2.4193 H   0  0  0  0  0  0  0  0  0  0  0  0
   -0.7794   -3.5679    2.2874 H   0  0  0  0  0  0  0  0  0  0  0  0
   -1.5256   -4.8123    1.2223 H   0  0  0  0  0  0  0  0  0  0  0  0
   -0.9548   -4.0862   -2.8944 H   0  0  0  0  0  0  0  0  0  0  0  0
   -0.2874   -2.6185   -2.1149 H   0  0  0  0  0  0  0  0  0  0  0  0
   -0.1033   -4.2213   -1.3302 H   0  0  0  0  0  0  0  0  0  0  0  0
   -2.8825   -0.2115    0.4322 H   0  0  0  0  0  0  0  0  0  0  0  0
   -3.0803   -2.3767   -2.8643 H   0  0  0  0  0  0  0  0  0  0  0  0
   -3.2889    1.4821   -0.9142 H   0  0  0  0  0  0  0  0  0  0  0  0
   -0.4424    3.8133    0.3462 H   0  0  0  0  0  0  0  0  0  0  0  0
   -0.6528    3.1025    1.9566 H   0  0  0  0  0  0  0  0  0  0  0  0
   -4.3685    3.0833    0.5464 H   0  0  0  0  0  0  0  0  0  0  0  0
   -4.3757    3.7351   -1.0936 H   0  0  0  0  0  0  0  0  0  0  0  0
   -2.9298    3.9920    2.1470 H   0  0  0  0  0  0  0  0  0  0  0  0
   -1.8367    5.3036    1.6910 H   0  0  0  0  0  0  0  0  0  0  0  0
   -1.4254    3.7345   -1.8506 H   0  0  0  0  0  0  0  0  0  0  0  0
   -2.7031    2.9534   -2.7931 H   0  0  0  0  0  0  0  0  0  0  0  0
   -1.2792    2.0301   -2.2928 H   0  0  0  0  0  0  0  0  0  0  0  0
    2.4775   -1.2839    2.5484 H   0  0  0  0  0  0  0  0  0  0  0  0
    1.8215    1.1869   -2.0341 H   0  0  0  0  0  0  0  0  0  0  0  0
    4.9450   -1.2455    2.5359 H   0  0  0  0  0  0  0  0  0  0  0  0
    5.9931    0.9837   -1.5498 H   0  0  0  0  0  0  0  0  0  0  0  0
    4.2285    1.8119   -3.1240 H   0  0  0  0  0  0  0  0  0  0  0  0
  1  2  2  0  0  0  0
  1  4  2  0  0  0  0
  1 10  1  0  0  0  0
  1 14  1  0  0  0  0
  3 20  1  0  0  0  0
  3 22  1  0  0  0  0
  4 38  1  0  0  0  0
  5 13  1  0  0  0  0
  5 17  2  0  0  0  0
  6 16  1  0  0  0  0
  6 18  1  0  0  0  0
  6 19  1  0  0  0  0
  7 16  2  0  0  0  0
  7 17  1  0  0  0  0
  8 26  1  0  0  0  0
  8 29  1  0  0  0  0
  8 52  1  0  0  0  0
  9 26  2  0  0  0  0
  9 28  1  0  0  0  0
 10 11  1  0  0  0  0
 10 12  1  0  0  0  0
 10 13  1  0  0  0  0
 11 12  1  0  0  0  0
 11 30  1  0  0  0  0
 11 31  1  0  0  0  0
 12 32  1  0  0  0  0
 12 33  1  0  0  0  0
 13 15  2  0  0  0  0
 14 34  1  0  0  0  0
 14 35  1  0  0  0  0
 14 36  1  0  0  0  0
 15 16  1  0  0  0  0
 15 37  1  0  0  0  0
 17 21  1  0  0  0  0
 18 20  1  0  0  0  0
 18 23  1  0  0  0  0
 18 39  1  0  0  0  0
 19 22  1  0  0  0  0
 19 40  1  0  0  0  0
 19 41  1  0  0  0  0
 20 42  1  0  0  0  0
 20 43  1  0  0  0  0
 21 24  2  0  0  0  0
 21 25  1  0  0  0  0
 22 44  1  0  0  0  0
 22 45  1  0  0  0  0
 23 46  1  0  0  0  0
 23 47  1  0  0  0  0
 23 48  1  0  0  0  0
 24 26  1  0  0  0  0
 24 27  1  0  0  0  0
 25 28  2  0  0  0  0
 25 49  1  0  0  0  0
 27 29  2  0  0  0  0
 27 50  1  0  0  0  0
 28 51  1  0  0  0  0
 29 53  1  0  0  0  0
M  END
> <PUBCHEM_COMPOUND_CID>
54761306

> <PUBCHEM_CONFORMER_RMSD>
1

> <PUBCHEM_CONFORMER_DIVERSEORDER>
1
151
157
166
97
135
154
55
145
165
156
113
66
146
108
148
126
72
40
176
59
93
63
82
161
139
134
84
184
67
150
180
138
39
50
140
36
175
110
32
53
118
107
121
57
169
80
101
34
81
170
99
124
162
179
142
111
94
167
70
75
171
27
78
132
168
95
120
62
183
112
159
133
90
45
123
147
77
58
105
172
116
127
102
51
136
85
149
155
178
73
164
152
56
98
33
130
23
74
129
174
160
86
60
38
125
91
65
92
68
131
87
114
182
143
88
128
28
103
79
89
52
163
177
29
158
104
115
153
109
141
31
7
119
137
20
46
173
43
76
64
42
106
144
30
22
122
12
8
117
71
21
41
9
181
10
83
69
54
17
100
96
14
48
19
61
25
11
6
49
37
5
47
18
13
26
24
35
15
44
2
3
16
4

> <PUBCHEM_MMFF94_PARTIAL_CHARGES>
37
1 1.11
10 0.05
11 -0.2
12 -0.2
13 0.28
14 0.11
15 -0.15
16 0.41
17 0.62
18 0.37
19 0.37
2 -0.65
20 0.28
22 0.28
25 -0.15
26 0.11
27 -0.15
28 0.16
29 -0.3
3 -0.56
30 0.1
31 0.1
32 0.1
33 0.1
37 0.15
38 0.4
4 -0.99
49 0.15
5 -0.62
50 0.15
51 0.15
52 0.27
53 0.15
6 -0.84
7 -0.62
8 0.03
9 -0.57

> <PUBCHEM_EFFECTIVE_ROTOR_COUNT>
5.8

> <PUBCHEM_PHARMACOPHORE_FEATURES>
10
1 2 acceptor
1 3 acceptor
1 8 donor
3 5 7 17 cation
3 6 7 16 cation
3 8 9 26 cation
5 8 24 26 27 29 rings
6 3 6 18 19 20 22 rings
6 5 7 13 15 16 17 rings
6 9 21 24 25 26 28 rings

> <PUBCHEM_HEAVY_ATOM_COUNT>
29

> <PUBCHEM_ATOM_DEF_STEREO_COUNT>
2

> <PUBCHEM_ATOM_UDEF_STEREO_COUNT>
0

> <PUBCHEM_BOND_DEF_STEREO_COUNT>
0

> <PUBCHEM_BOND_UDEF_STEREO_COUNT>
0

> <PUBCHEM_ISOTOPIC_ATOM_COUNT>
0

> <PUBCHEM_COMPONENT_COUNT>
1

> <PUBCHEM_CACTVS_TAUTO_COUNT>
4

> <PUBCHEM_CONFORMER_ID>
0343975A00000001

> <PUBCHEM_MMFF94_ENERGY>
81.195

> <PUBCHEM_FEATURE_SELFOVERLAP>
50.998

> <PUBCHEM_SHAPE_FINGERPRINT>
11477941 20 17908732822883160756
11578080 2 17773305953634307961
12160290 23 18410854356516765353
12553582 1 18123194768755901978
12788726 201 18408602595426649707
12977781 61 17346020175000070702
13140716 1 18265053715920973515
13540713 5 17967254209270077920
13583140 156 17775273968606986578
13681431 1 17548414164666114155
15439362 3 17907584619152197884
15842332 3 17967253100946885256
16752209 62 18339915004654696098
17138139 8 17836882881902259149
1813 80 17910965964646507702
21033650 10 17487063258794694424
21304303 282 18196064699901253205
2132832 1 17970331810787961648
22149856 69 17837787638634708809
22907989 373 18409732901732327668
23366157 5 17256252540782684241
23558518 356 18264765459281254771
23559900 14 18271245998875404794
23569917 315 18121212078950714323
23598288 3 18335425668529066314
23929065 36 18125411281328585344
26353 1 17980194511091961999
340366 18 17972044643761586542
352729 6 18194121806967553345
4017518 198 17909535170013697294
474 4 17831020122146093033
5081480 168 17834660970861282911
6287921 2 17545888122601242221
6691757 9 18199176296818391394
7164475 11 18262240027501450730
9981440 41 18047473327217494489

> <PUBCHEM_SHAPE_MULTIPOLES>
559.03
8.2
6.54
2
11.94
0.59
-0.65
2
-1
-11.99
-0.15
0.6
-0.52
-1.69

> <PUBCHEM_SHAPE_SELFOVERLAP>
1210.209

> <PUBCHEM_SHAPE_VOLUME>
311.5

> <PUBCHEM_COORDINATE_TYPE>
2
5
10

$$$$
